&HEAD CHID='bld_wpr', TITLE='BEKOK-C_LAYOUT'/

&MESH IJK=87,50,57,XB=0.0,61.5,0.0,36.0,5.5,9.7 / 

&MESH IJK=87,50,57,XB=13.5,30.9, 2.1,32.1,10.0,15.4 / 174,100,114

&MESH IJK=87,50,57,XB=13.5,30.9, 2.1,32.1,15.6,20.74 / 

&MESH IJK=87,50,57,XB=13.5,30.9, 2.1,32.1,20.9,23.0/ 

********EVACUATION MESH************
 MESH IJK=87,50,1,XB=0.0,61,0.0,36.0, 5.4,7.0, EVAC_Z_OFFSET=1.0,
      EVACUATION=.TRUE., EVAC_HUMANS=.TRUE., ID='1stfloorgrid'/

 Now dx=dy=0.3m, z_mid=6.2m
&MESH IJK=205,120,1,XB=0.0,61.5,0.0,36.0, 5.4,7.0, EVAC_Z_OFFSET=1.0,
      EVACUATION=.TRUE., EVAC_HUMANS=.TRUE., ID='1stfloorgrid'/
 MESH IJK=205,120,1,XB=0.0,61.5,0.0,36.0, 5.4,7.0,
      EVACUATION=.TRUE., EVAC_HUMANS=.FALSE., ID='GroundExit1'/
&SLCF PBZ=6.0, QUANTITY='VELOCITY', VECTOR=.TRUE., EVACUATION=.TRUE. /

 dx=dy=0.3m, z_mid=10.6
&MESH IJK=59,100,1,XB=13.2,30.9, 2.1,32.1, 9.8,11.4, EVAC_Z_OFFSET=1.0,
      EVACUATION=.TRUE., EVAC_HUMANS=.TRUE., ID='2ndfloorgrid'/
&SLCF PBZ=10.5, QUANTITY='VELOCITY', VECTOR=.TRUE., EVACUATION=.TRUE. /
MESH IJK=59,100,1,XB=13.2,30.9, 2.1,32.1, 9.8,11.4,
      EVACUATION=.TRUE., EVAC_HUMANS=.FALSE., ID='2ndlevelExit2'/  

dx=dy=0.3m, z_mid=16.1195
&MESH IJK=59,100,1,XB=13.2,30.9, 2.1,32.1, 15.439,16.8, EVAC_Z_OFFSET=1.0,
      EVACUATION=.TRUE., EVAC_HUMANS=.TRUE., ID='3rdfloorgrid'/
&SLCF PBZ=16.1, QUANTITY='VELOCITY', VECTOR=.TRUE., EVACUATION=.TRUE. /
MESH IJK=59,100,1,XB=13.2,30.9, 2.1,32.1, 15.439,16.8,
      EVACUATION=.TRUE., EVAC_HUMANS=.FALSE., ID='3rdlevelExit'/

dx=dy=0.3m, z_mid=21.3815
&MESH IJK=59,100,1,XB=13.2,30.9, 2.1,32.1, 20.763,22.0, EVAC_Z_OFFSET=1.0,
      EVACUATION=.TRUE., EVAC_HUMANS=.TRUE., ID='4thfloorgrid'/
&SLCF PBZ=16.1, QUANTITY='VELOCITY', VECTOR=.TRUE., EVACUATION=.TRUE. /
MESH IJK=59,100,1,XB=13.2,30.9, 2.1,32.1, 20.763,22.0,
      EVACUATION=.TRUE., EVAC_HUMANS=.FALSE., ID='4thlevelExit'/


 Add walls to your staircase. (for the other meshes, that their agents
 can not enter the strs-mesh accidentally. They should used doors to
 change the mesh to strs-mesh.
OBST XB=10.48,10.5, 3.3,12.9, 0.4,24.0, COLOR='RED', EVACUATION=.TRUE. /
OBST XB=13.2,13.22, 3.3,12.9, 0.4,24.0, COLOR='RED', EVACUATION=.TRUE. /
OBST XB=10.5,13.2,  3.28,3.3, 0.4,24.0, COLOR='RED', EVACUATION=.TRUE. /
OBST XB=10.5,13.2,  12.9,12.92, 0.4,24.0, COLOR='RED', EVACUATION=.TRUE. /

 dx=dy=0.1m
MESH IJK=27,96,1,,XB=10.5,13.2,  3.3,12.9, 5.4,22.0, EVAC_Z_OFFSET=0.9,
      EVACUATION=.TRUE., EVAC_HUMANS=.TRUE., ID='staircase'/


MESH IJK=87,50,1,XB=10.5,13.484,3.4,12.839,6.5,22.0, EVAC_Z_OFFSET=1.0,
      EVACUATION=.TRUE., EVAC_HUMANS=.TRUE., ID='staircase'/

*************************************
&MISC EVACUATION_MC_MODE=.TRUE., EVACUATION_DRILL=.TRUE. /
*************************************
~&SURF ID='Outflow.',
      RGB=26,128,26,
      VEL=1.0E-6,
      TAU_V=0.1/
************************************


************************************
&DUMP RENDER_FILE='OFFSHORE.ge1', DT_RESTART=300.0/
************************************

&TIME T_END=200./

&REAC ID='GASOLINE',C=8.,H=18.,SOOT_YIELD=0.03/


&MATL ID='CONCRETE_STONE'
CONDUCTIVITY=1.7
SPECIFIC_HEAT=0.88
DENSITY=2400./

&MATL ID='STAINLESS_STEEL'
CONDUCTIVITY=16.2
SPECIFIC_HEAT=0.502
DENSITY=7750./

&MATL ID ='BUILDING'
CONDUCTIVITY =0.07
SPECIFIC_HEAT=2.1
DENSITY=230./

&SURF ID	='WALLS'
	MATL_ID='BUILDING'
	COLOR='SEPIA'
	BACKING='VOID'
	THICKNESS=0.010/

&SURF ID='GROUND_BASE'
MATL_ID='CONCRETE_STONE'
COLOR='SANDY BROWN'
BACKING='VOID'
THICKNESS=5/    * Difference between thickness and z direction values 

&SURF ID='EQUIPMENT'
MATL_ID='STAINLESS_STEEL'
COLOR='SILVER'
BACKING='VOID'
THICKNESS=0.05/


&SURF ID='BURNER1',HRRPUA=1700./ Gas burner 




&OBST XB=4.380,11.193,3.4069,31.31137,2.5,5.0, SURF_ID='GROUND_BASE'/ First Deck Ground-Floor
&OBST XB=2.5957,4.54205,3.4069,29.201,2.5,5.0, SURF_ID='GROUND_BASE'/ First Deck Ground-Floor
&OBST XB=0.0,2.5957,4.380,5.3537,2.5,5.0, SURF_ID='GROUND_BASE'/ First Deck Ground-Floor
&OBST XB=0.0,2.5957,13.468,14.438,2.5,5.0, SURF_ID='GROUND_BASE'/ First Deck Ground-Floor
&OBST XB=0.0,2.5957,22.712,23.686,2.5,5.0, SURF_ID='GROUND_BASE'/ First Deck Ground-Floor
&OBST XB=1.379,2.5957,9.004,9.896,2.5,5.0, SURF_ID='GROUND_BASE'/ First Deck Ground-Floor
&OBST XB=1.379,2.5957,18.170,19.143,2.5,5.0, SURF_ID='GROUND_BASE'/ First Deck Ground-Floor
&OBST XB=1.1216,2.5957,27.254,19.201,2.5,5.0, SURF_ID='GROUND_BASE'/ First Deck Ground-Floor
&OBST XB=11.193,20.927,1.135,33.902,2.5,5.0, SURF_ID='GROUND_BASE'/ First Deck Ground-Floor
&OBST XB=11.193,12.977,0.324,1.135,2.5,5.0, SURF_ID='GROUND_BASE'/ First Deck Ground-Floor
&OBST XB=20.927,29.849,1.135,33.902,2.5,5.0, SURF_ID='GROUND_BASE'/ First Deck Ground-Floor
&OBST XB=29.849,53.234,3.569,31.711,2.5,5.0, SURF_ID='GROUND_BASE'/ First Deck Ground-Floor



&OBST XB=43.88329,49.561529,25.38917,28.63388,5.0,6.5, COLOR='GRAY 80', SURF_ID='INERT'/  Warm Gas Flare Scrubber
-------------------------------------------------------------------------------------------
&OBST XB=43.88329,49.561529,25.38917,28.63388,5.0,6.5,
SURF_IDs='BURNER1','BURNER1','INERT'/Burner
------------------------------------------------------------------------------------------

&OBST XB=45.099,48.668,11.843,21.739,5.0,6.5,COLOR='GRAY 80', SURF_ID='INERT'/ Cold Gas Flare Scrubber
------------------------------------------------------------------------------------------
&OBST XB=45.199,48.568,11.743,21.639,5.0,6.4,SURF_IDs='BURNER1','BURNER1','BURNER1', DEVC_ID='1ST_COLD_GAS_FLARE_SCUB', EVACUATION=.FALSE./ Burner
&DEVC ID='1ST_COLD_GAS_FLARE_SCUB', XYZ=47.0,21.639,6.3, PROP_ID= 'HEAT'/
&PROP ID= 'HEAT', QUANTITY= 'LINK TEMPERATURE', RTI =2, ACTIVATION_TEMPERATURE= 28/
------------------------------------------------------------------------------------------


&OBST XB=34.39252,40.80082,25.79476,27.822705,5.0,6.3, COLOR='GRAY 80', SURF_ID='INERT'/ Production Separation
------------------------------------------------------------------------------------------
&OBST XB=34.5,40.66082,25.85476,27.682705,5.0,6.2,SURF_IDs='BURNER1','BURNER1','BURNER1', DEVC_ID='1ST_PROD_SEP_IN', EVACUATION=.FALSE./ Burner
&DEVC ID='1ST_PROD_SEP_IN', XYZ=40.6608,27.4,6.1, PROP_ID= 'HEAT'/
&DEVC ID='1ST_PROD_SEP_OUT', XYZ=40.80082,27.4,6.3,QUANTITY= 'TEMPERATURE'/
&PROP ID= 'HEAT', QUANTITY= 'LINK TEMPERATURE', RTI =2, ACTIVATION_TEMPERATURE= 24/
------------------------------------------------------------------------------------------



&OBST XB=37.312764,40.55747,22.2258,23.36125,5.0,6.3, COLOR='GRAY 80', SURF_ID='INERT'/ Test Separator
------------------------------------------------------------------------------------------
&OBST XB=37.41,40.45,22.32,23.26,5.0,6.2,SURF_IDs='BURNER1','BURNER1','BURNER1', DEVC_ID='1ST_TEST_SEP', EVACUATION=.FALSE./ Burner
&DEVC ID='1ST_TEST_SEP', XYZ=38.5,23.26,6.1, PROP_ID= 'HEAT'/
&PROP ID= 'HEAT', QUANTITY= 'LINK TEMPERATURE', RTI =2, ACTIVATION_TEMPERATURE= 28/
------------------------------------------------------------------------------------------


&OBST XB=22.22488,28.8765,22.55005,24.1724,5.0,6.3, COLOR='GRAY 80', SURF_ID='INERT'/ Pump Out Boot
------------------------------------------------------------------------------------------
&OBST XB=22.3,28.77,22.65,24.07,5.0,6.2,SURF_IDs='BURNER1','BURNER1','BURNER1', DEVC_ID='1ST_PUMP_OUT_BOOT', EVACUATION=.FALSE./ Burner
&DEVC ID='1ST_PUMP_OUT_BOOT', XYZ=25.0,24.07,6.1, PROP_ID= 'HEAT'/
&PROP ID= 'HEAT', QUANTITY= 'LINK TEMPERATURE', RTI =2, ACTIVATION_TEMPERATURE= 28/
------------------------------------------------------------------------------------------


&OBST XB=22.38711,24.6584,11.51805,20.7654705,5.0,6.3, COLOR='GRAY 80', SURF_ID='INERT'/ Slug Catcher #to the right
------------------------------------------------------------------------------------------
&OBST XB=22.5,24.54,11.6,20.86,5.0,6.2,SURF_IDs='BURNER1','BURNER1','BURNER1', DEVC_ID='1ST_SLUG_CATCHER_RIGHT', EVACUATION=.FALSE./ Burner
&DEVC ID='1ST_SLUG_CATCHER_RIGHT', XYZ=24.54,15.0,6.1, PROP_ID= 'HEAT'/
&PROP ID= 'HEAT', QUANTITY= 'LINK TEMPERATURE', RTI =2, ACTIVATION_TEMPERATURE= 28/
------------------------------------------------------------------------------------------
27.0,9.5,6.0
&OBST XB=26.52411,28.63317,11.51805,20.7654705,5.0,6.3, COLOR='GRAY 80', SURF_ID='INERT'/ Slug Catcher #to the left
---------------------------------------------------------------------------------------
&OBST XB=26.52411,28.63317,11.51805,20.7654705,5.0,6.3,
SURF_IDs='BURNER1','BURNER1','INERT'/Burner
----------------------------------------------------------------------------------------


&OBST XB=22.22488,28.8765,6.00205,8.35447,5.0,6.3, COLOR='GRAY 80', SURF_ID='INERT'/ Sarting Air Receiver
------------------------------------------------------------------------------------------
&OBST XB=22.35,28.69,6.15,8.25,5.0,6.2,SURF_IDs='BURNER1','BURNER1','BURNER1', DEVC_ID='1ST_START_AIR_RECV', EVACUATION=.FALSE./ Burner
&DEVC ID='1ST_START_AIR_RECV', XYZ=25.0,8.25,6.1, PROP_ID= 'HEAT'/
&PROP ID= 'HEAT', QUANTITY= 'LINK TEMPERATURE', RTI =2, ACTIVATION_TEMPERATURE= 28/
------------------------------------------------------------------------------------------

&OBST XB=13.86988,20.278176,27.575,29.198,5.0,6.3, COLOR='GRAY 80', SURF_ID='INERT'/ Air Receiver (Supported From UPPER Deck)
------------------------------------------------------------------------------------------
&OBST XB=13.96,20.17,27.67,29.098,5.0,6.2,SURF_IDs='BURNER1','BURNER1','BURNER1', DEVC_ID='1ST_AIR_RECV_UPDECK', EVACUATION=.FALSE./ Burner
&DEVC ID='1ST_AIR_RECV_UPDECK', XYZ=16.5,27.67,6.1, PROP_ID= 'HEAT'/
&PROP ID= 'HEAT', QUANTITY= 'LINK TEMPERATURE', RTI =2, ACTIVATION_TEMPERATURE= 28/
------------------------------------------------------------------------------------------

&OBST XB=17.92576,19.2236,31.509,33.5,5.0,5.2, SURF_ID='INERT', COLOR='IVORY BLACK'/ Diaphragm Skid Tank - BASE

&OBST XB=18.33135,18.7369,32.8,33.4,5.2,6.5, COLOR='GRAY 80', SURF_ID='INERT'/ Diaphragm Skid Tank - Tank ONE

&OBST XB=17.92576,18.8180588,31.9,32.55,5.2,6.5, COLOR='GRAY 80', SURF_ID='INERT'/ Diaphragm Skid Tank - Tank TWO

&OBST XB=13.5454,14.84329,21.573,24.817,5.0,6.3, COLOR='GRAY 80', SURF_ID='INERT'/ Diesel Day Tank
-----------------------------------------------------------------------------
&OBST XB=13.5454,14.84329,21.573,24.817,5.0,6.3,
SURF_IDs='BURNER1','BURNER1','INERT'/Burner
-----------------------------------------------------------------------------

&OBST XB=15.8978,20.927,20.599,26.440,5.0,7.5, COLOR='GRAY 80', SURF_ID='INERT'/ Maintenance Workshop
&HOLE XB=16.1,20.5,20.599,25.0,5.0,7.019/

&OBST XB=12.977588,18.331352,16.381,17.679,5.0,6.3, COLOR='GRAY 80', SURF_ID='INERT'/ Turbine Generator Area
------------------------------------------------------------------------------------------
&OBST XB=13.06,18.23,16.48,17.57,5.0,6.2,SURF_IDs='BURNER1','BURNER1','BURNER1', DEVC_ID='1ST_TUR_GEN_AREA_A', EVACUATION=.FALSE./ Burner
&DEVC ID='1ST_TUR_GEN_AREA_A', XYZ=15.5,16.48,6.2, PROP_ID= 'HEAT'/
&PROP ID= 'HEAT', QUANTITY= 'LINK TEMPERATURE', RTI =2, ACTIVATION_TEMPERATURE= 28/
------------------------------------------------------------------------------------------

&OBST XB=12.977588,18.331352,13.299,14.569,5.0,6.3, COLOR='GRAY 80', SURF_ID='INERT'/ Turbine Generator Area
-----------------------------------------------------------------------------
&OBST XB=12.977588,18.331352,13.299,14.569,5.0,6.3,
SURF_IDs='BURNER1','BURNER1','INERT'/Burner
-----------------------------------------------------------------------------

&OBST XB=12.977588,18.331352,10.378,11.676,5.0,6.3, COLOR='GRAY 80', SURF_ID='INERT'/ Turbine Generator Area
------------------------------------------------------------------------------------------
&OBST XB=13.06,18.23,10.47,11.47,5.0,6.2,SURF_IDs='BURNER1','BURNER1','BURNER1', DEVC_ID='1ST_TUR_GEN_AREA_C', EVACUATION=.FALSE./ Burner
&DEVC ID='1ST_TUR_GEN_AREA_C', XYZ=15.5,11.47,6.2, PROP_ID= 'HEAT'/
&PROP ID= 'HEAT', QUANTITY= 'LINK TEMPERATURE', RTI =2, ACTIVATION_TEMPERATURE= 28/
------------------------------------------------------------------------------------------

&OBST XB=13.952,16.872,4.867,5.516,5.0,6.3, COLOR='GRAY 80', SURF_ID='INERT'/ Fuel Gas Filter Separator Skid

&OBST XB=13.627,14.601,6.651,7.300,5.0,6.0, COLOR='GRAY 80', SURF_ID='INERT'/ FWM- FINEWATER Mist Cabinet (left-left-left)

&OBST XB=15.087,16.061,6.651,7.300,5.0,6.0, COLOR='GRAY 80', SURF_ID='INERT'/ FWM- FINEWATER Mist Cabinet (right-right-right)

&OBST XB=16.548,17.521,6.651,7.300,5.0,6.0, COLOR='GRAY 80', SURF_ID='INERT'/ FWM- FINEWATER Mist Cabinet middel

&OBST XB=16.4922,18.1957,2.919588,3.568529,5.0,6.5, COLOR='GRAY 80', SURF_ID='INERT'/  Lube Oil Cooler

&OBST XB=31.39117,31.87788,25.30805,25.957,5.0,6.0, COLOR='GRAY 80', SURF_ID='INERT'/  Future Pump-1

&OBST XB=31.39117,31.87788,26.443705,27.092647,5.0,6.0, COLOR='GRAY 80', SURF_ID='INERT'/  Future Pump-2

&OBST XB=31.39117,31.87788,27.579,28.22829,5.0,6.0, COLOR='GRAY 80', SURF_ID='INERT'/  Future Pump-3

&OBST XB=31.1478,32.3645,22.3878,23.52347,5.0,6.0, COLOR='GRAY 80', SURF_ID='INERT'/  3WS-115

&OBST XB=37.799,39.74629,9.571235,9.9768,5.0,6.0, COLOR='GRAY 80', SURF_ID='INERT'/  Nearby Wellhead Control - Lenght of 2388 scale

&OBST XB=37.9617,38.61064,7.786647,8.435588,5.0,6.0, COLOR='GRAY 80', SURF_ID='INERT'/  Instrument Air Reciever-1

&OBST XB=38.61064,39.259588,8.03,8.43558,5.0,6.0, COLOR='GRAY 80', SURF_ID='INERT'/  Instrument Air Reciever-2

&OBST XB=39.259588,40.47635,6.704176,7.8398235,5.0,6.0, COLOR='GRAY 80', SURF_ID='INERT'/  Note-3

&OBST XB=39.5029,40.233,8.251,9.062176,5.0,6.0, COLOR='GRAY 80', SURF_ID='INERT'/  Panel

&OBST XB=42.34205,42.74764,8.76005,10.0579,5.0,6.0, COLOR='GRAY 80', SURF_ID='INERT'/  Stuffing W/Regulator

&OBST XB=42.34205882,42.58541176,7.462176,8.27335,5.0,6.0, COLOR='GRAY 80', SURF_ID='INERT'/  Ignnitor Panel

&OBST XB=43.63994,45.6245,5.8398,7.7866,5.0,5.2, SURF_ID='INERT', COLOR='IVORY BLACK'/  Chemical Injection Skid 

&OBST XB=43.88329,44.45111,6.083176,6.651,5.2,6.2, COLOR='GRAY 80', SURF_ID='INERT'/  Chemial Injection-1

&OBST XB=43.88329,44.45111,6.97547,7.54329,5.2,6.2, COLOR='GRAY 80', SURF_ID='INERT'/  Chemial Injection-2

&OBST XB=43.88329,44.61335294,7.786647,8.192235294,5.2,6.2, COLOR='GRAY 80', SURF_ID='INERT'/  Chemial Injection-3

&OBST XB=44.7755,45.18117,6.083176,6.651,5.2,6.2, COLOR='GRAY 80', SURF_ID='INERT'/  Chemial Injection-4

OBST XB=5.3534,5.84011,5.59707,9.328488,5.0,6.5, COLOR='GRAY 80', SURF_ID='INERT'/  Emergency Generator

&OBST XB=4.38,7.38135,10.058547,12.97878,5.0,7.5, COLOR='GRAY 80', SURF_ID='INERT'/ Battary Room

&OBST XB=4.9478235,7.300235,12.97878,14.844488,5.0,6.5, COLOR='GRAY 80', SURF_ID='INERT'/  Air Compressor 8C-490B

&OBST XB=4.9478235,7.300235,15.006723,16.87242941,5.0,6.5, COLOR='GRAY 80', SURF_ID='INERT'/  Air Compressor 8C-490A

&OBST XB=10.058235,11.275,15.25007647,16.223488,5.0,6.5,COLOR='GRAY 80', SURF_ID='INERT'/  Feed Water Pump 4P-420B
------------------------------------------------------------------------------------------
&OBST XB=10.158,11.175,15.35,16.12,5.0,6.3,SURF_IDs='BURNER1','BURNER1','BURNER1', DEVC_ID='1ST_FEED_WATER_PP_B', EVACUATION=.FALSE./ Burner
&DEVC ID='1ST_FEED_WATER_PP_B', XYZ=11.175,15.8,6.3, PROP_ID= 'HEAT'/
&PROP ID= 'HEAT', QUANTITY= 'LINK TEMPERATURE', RTI =2, ACTIVATION_TEMPERATURE= 28/
------------------------------------------------------------------------------------------

&OBST XB=10.058235,11.275,17.11578,18.00807,5.0,6.5,COLOR='GRAY 80', SURF_ID='INERT'/   Feed Water Pump 4P-420A
------------------------------------------------------------------------------------------
&OBST XB=10.158,11.175,17.215,17.90,5.0,6.3,SURF_IDs='BURNER1','BURNER1','BURNER1', DEVC_ID='1ST_FEED_WATER_PP_A', EVACUATION=.FALSE./ Burner
&DEVC ID='1ST_FEED_WATER_PP_A', XYZ=11.175,17.56,6.3, PROP_ID= 'HEAT'/
&PROP ID= 'HEAT', QUANTITY= 'LINK TEMPERATURE', RTI =2, ACTIVATION_TEMPERATURE= 28/
------------------------------------------------------------------------------------------


&OBST XB=10.058235,11.275,18.90037,19.79266,5.0,6.5, COLOR='GRAY 80', SURF_ID='INERT'/   Feed Water Pump 4P-420C
------------------------------------------------------------------------------------------
&OBST XB=10.158,11.175,19.1,19.6,5.0,6.3,SURF_IDs='BURNER1','BURNER1','BURNER1', DEVC_ID='1ST_FEED_WATER_PP_C', EVACUATION=.FALSE./ Burner
&DEVC ID='1ST_FEED_WATER_PP_C', XYZ=11.175,19.4,6.3, PROP_ID= 'HEAT'/
&PROP ID= 'HEAT', QUANTITY= 'LINK TEMPERATURE', RTI =2, ACTIVATION_TEMPERATURE= 28/
------------------------------------------------------------------------------------------

&OBST XB=11.031647,11.59947,23.28072,24.497488,5.0,6.5, COLOR='GRAY 80', SURF_ID='INERT'/  Pot Water Pump 5P-460B

&OBST XB=11.031647,11.59947,25.38978,26.60654706,5.0,6.5, COLOR='GRAY 80', SURF_ID='INERT'/  Pot Water Pump 5P-460A

&OBST XB=5.02894,5.5967647,24.01078,24.41637059,5.0,6.5, COLOR='GRAY 80', SURF_ID='INERT'/  QUARTERS F.W.

&OBST XB=4.866705882,6.002352941,25.633135,26.8499,5.0,6.5, COLOR='GRAY 80', SURF_ID='INERT'/ Service Air Receiver

&OBST XB=30.661117,32.60794,11.11247,21.252176,5.0,6.5, COLOR='GRAY 80', SURF_ID='INERT'/  Gas Manifold Header
------------------------------------------------------------------------------------------
&OBST XB=30.76,32.50,11.21,21.15,5.0,6.3,SURF_IDs='BURNER1','BURNER1','BURNER1', DEVC_ID='1ST_GAS_MANIFOLD_HEAD', EVACUATION=.FALSE./ Burner
&DEVC ID='1ST_GAS_MANIFOLD_HEAD', XYZ=32.50,14.0,6.3, PROP_ID= 'HEAT'/
&PROP ID= 'HEAT', QUANTITY= 'LINK TEMPERATURE', RTI =2, ACTIVATION_TEMPERATURE= 28/
------------------------------------------------------------------------------------------

&OBST XB=40.31411765,42.3420588,11.11247,21.252176,5.0,6.5, COLOR='GRAY 80', SURF_ID='INERT'/  Oil Manifold Header
------------------------------------------------------------------------------------------
&OBST XB=40.41,42.24,11.21,21.15,5.0,6.3,SURF_IDs='BURNER1','BURNER1','BURNER1', DEVC_ID='1ST_OIL_MANIFOLD_HEAD', EVACUATION=.FALSE./ Burner
&DEVC ID='1ST_OIL_MANIFOLD_HEAD', XYZ=40.41,14.0,6.3, PROP_ID= 'HEAT'/
&PROP ID= 'HEAT', QUANTITY= 'LINK TEMPERATURE', RTI =2, ACTIVATION_TEMPERATURE= 28/
------------------------------------------------------------------------------------------



		======== GAS MANIFOLD HEADER WH-1/WH-21=========

&OBST XB=37.961705,38.77288,20.441,21.25217,5.0,6.5, COLOR='GRAY 80', SURF_ID='INERT'/ Gas Manifold Header - WH-1
------------------------------------------------------------------------------------------
&OBST XB=38.1,38.67,20.54,21.15,5.0,6.4,SURF_IDs='BURNER1','BURNER1','BURNER1', DEVC_ID='1ST_WH_01', EVACUATION=.FALSE./ Burner
&DEVC ID='1ST_WH_01', XYZ=38.1,20.8,6.2, PROP_ID= 'HEAT'/
&PROP ID= 'HEAT', QUANTITY= 'LINK TEMPERATURE', RTI =2, ACTIVATION_TEMPERATURE= 28/
------------------------------------------------------------------------------------------
&OBST XB=37.961705,38.77288,18.98088,19.79205,5.0,6.5, COLOR='GRAY 80', SURF_ID='INERT'/ Gas Manifold Header - WH-2
------------------------------------------------------------------------------------------
&OBST XB=38.1,38.67,19.09,19.69,5.0,6.4,SURF_IDs='BURNER1','BURNER1','BURNER1', DEVC_ID='1ST_WH_02', EVACUATION=.FALSE./ Burner
&DEVC ID='1ST_WH_02', XYZ=38.1,19.3,6.2, PROP_ID= 'HEAT'/
&PROP ID= 'HEAT', QUANTITY= 'LINK TEMPERATURE', RTI =2, ACTIVATION_TEMPERATURE= 28/
------------------------------------------------------------------------------------------
&OBST XB=37.961705,38.77288,17.52076,18.33194,5.0,6.5, COLOR='GRAY 80', SURF_ID='INERT'/ Gas Manifold Header - WH-3
------------------------------------------------------------------------------------------
&OBST XB=38.1,38.67,17.62,18.23,5.0,6.4,SURF_IDs='BURNER1','BURNER1','BURNER1', DEVC_ID='1ST_WH_03', EVACUATION=.FALSE./ Burner
&DEVC ID='1ST_WH_03', XYZ=38.1,17.9,6.2, PROP_ID= 'HEAT'/
&PROP ID= 'HEAT', QUANTITY= 'LINK TEMPERATURE', RTI =2, ACTIVATION_TEMPERATURE= 28/
------------------------------------------------------------------------------------------
&OBST XB=37.961705,38.77288,16.060647,16.87182,5.0,6.5, COLOR='GRAY 80', SURF_ID='INERT'/ Gas Manifold Header - WH-4
------------------------------------------------------------------------------------------
&OBST XB=38.1,38.67,16.16,16.77,5.0,6.4,SURF_IDs='BURNER1','BURNER1','BURNER1', DEVC_ID='1ST_WH_04', EVACUATION=.FALSE./ Burner
&DEVC ID='1ST_WH_04', XYZ=38.1,16.45,6.2, PROP_ID= 'HEAT'/
&PROP ID= 'HEAT', QUANTITY= 'LINK TEMPERATURE', RTI =2, ACTIVATION_TEMPERATURE= 28/
------------------------------------------------------------------------------------------
&OBST XB=37.961705,38.77288,14.60052,15.4117,5.0,6.5, COLOR='GRAY 80', SURF_ID='INERT'/ Gas Manifold Header - WH-5
------------------------------------------------------------------------------------------
&OBST XB=38.1,38.67,14.7,15.31,5.0,6.4,SURF_IDs='BURNER1','BURNER1','BURNER1', DEVC_ID='1ST_WH_05', EVACUATION=.FALSE./ Burner
&DEVC ID='1ST_WH_05', XYZ=38.1,15.0,6.2, PROP_ID= 'HEAT'/
&PROP ID= 'HEAT', QUANTITY= 'LINK TEMPERATURE', RTI =2, ACTIVATION_TEMPERATURE= 28/
------------------------------------------------------------------------------------------
&OBST XB=37.961705,38.77288,13.140411,13.95158,5.0,6.5, COLOR='GRAY 80', SURF_ID='INERT'/ Gas Manifold Header - WH-6
&OBST XB=37.961705,38.77288,11.68029,12.491471,5.0,6.5, COLOR='GRAY 80', SURF_ID='INERT'/ Gas Manifold Header - WH-7

&OBST XB=36.01488,36.82605,20.441,21.25217,5.0,6.5, COLOR='GRAY 80', SURF_ID='INERT'/ Gas Manifold Header - WH-8
------------------------------------------------------------------------------------------
&OBST XB=36.1,36.72,20.54,21.15,5.0,6.4,SURF_IDs='BURNER1','BURNER1','BURNER1', DEVC_ID='1ST_WH_08', EVACUATION=.FALSE./ Burner
&DEVC ID='1ST_WH_08', XYZ=36.4,20.54,6.4, PROP_ID= 'HEAT'/
&PROP ID= 'HEAT', QUANTITY= 'LINK TEMPERATURE', RTI =2, ACTIVATION_TEMPERATURE= 28/
------------------------------------------------------------------------------------------
&OBST XB=36.01488,36.82605,18.98088,19.79205,5.0,6.5, COLOR='GRAY 80', SURF_ID='INERT'/ Gas Manifold Header - WH-9
------------------------------------------------------------------------------------------
&OBST XB=36.1,36.72,19.09,19.69,5.0,6.4,SURF_IDs='BURNER1','BURNER1','BURNER1', DEVC_ID='1ST_WH_09', EVACUATION=.FALSE./ Burner
&DEVC ID='1ST_WH_09', XYZ=36.4,19.09,6.4, PROP_ID= 'HEAT'/
&PROP ID= 'HEAT', QUANTITY= 'LINK TEMPERATURE', RTI =2, ACTIVATION_TEMPERATURE= 28/
------------------------------------------------------------------------------------------
&OBST XB=36.01488,36.82605,17.52076,18.33194,5.0,6.5, COLOR='GRAY 80', SURF_ID='INERT'/ Gas Manifold Header - WH-10

---------------------------------------------------------------------------------------
&OBST XB=36.01488,36.82605,17.52076,18.33194,5.0,6.5,
SURF_IDs='BURNER1','BURNER1','INERT'/Burner

---------------------------------------------------------------------------------------
&OBST XB=36.01488,36.82605,16.060647,16.87182,5.0,6.5, COLOR='GRAY 80', SURF_ID='INERT'/ Gas Manifold Header - WH-11
------------------------------------------------------------------------------------------
&OBST XB=36.1,36.72,16.16,16.77,5.0,6.4,SURF_IDs='BURNER1','BURNER1','BURNER1', DEVC_ID='1ST_WH_11', EVACUATION=.FALSE./ Burner
&DEVC ID='1ST_WH_11', XYZ=36.4,16.77,6.4, PROP_ID= 'HEAT'/
&PROP ID= 'HEAT', QUANTITY= 'LINK TEMPERATURE', RTI =2, ACTIVATION_TEMPERATURE= 28/
------------------------------------------------------------------------------------------

&OBST XB=36.01488,36.82605,14.60052,15.4117,5.0,6.5, COLOR='GRAY 80', SURF_ID='INERT'/ Gas Manifold Header - WH-12
------------------------------------------------------------------------------------------
&OBST XB=36.11,36.7,14.7,15.31,5.0,6.4,SURF_IDs='BURNER1','BURNER1','BURNER1', DEVC_ID='1ST_WH_12', EVACUATION=.FALSE./ Burner
&DEVC ID='1ST_WH_12', XYZ=36.4,15.31,6.4, PROP_ID= 'HEAT'/
&PROP ID= 'HEAT', QUANTITY= 'LINK TEMPERATURE', RTI =2, ACTIVATION_TEMPERATURE= 28/
------------------------------------------------------------------------------------------
&OBST XB=36.01488,36.82605,13.140411,13.95158,5.0,6.5, COLOR='GRAY 80', SURF_ID='INERT'/ Gas Manifold Header - WH-13
------------------------------------------------------------------------------------------
&OBST XB=36.11,36.7,13.24,13.85,5.0,6.4,SURF_IDs='BURNER1','BURNER1','BURNER1', DEVC_ID='1ST_WH_13', EVACUATION=.FALSE./ Burner
&DEVC ID='1ST_WH_13', XYZ=36.4,13.85,6.4, PROP_ID= 'HEAT'/
&PROP ID= 'HEAT', QUANTITY= 'LINK TEMPERATURE', RTI =2, ACTIVATION_TEMPERATURE= 28/
------------------------------------------------------------------------------------------
&OBST XB=36.01488,36.82605,11.68029,12.491471,5.0,6.5, COLOR='GRAY 80', SURF_ID='INERT'/ Gas Manifold Header - WH-14
------------------------------------------------------------------------------------------
&OBST XB=36.11,36.7,11.78,12.39,5.0,6.4,SURF_IDs='BURNER1','BURNER1','BURNER1', DEVC_ID='1ST_WH_14', EVACUATION=.FALSE./ Burner
&DEVC ID='1ST_WH_14', XYZ=36.4,12.39,6.4, PROP_ID= 'HEAT'/
&PROP ID= 'HEAT', QUANTITY= 'LINK TEMPERATURE', RTI =2, ACTIVATION_TEMPERATURE= 28/
------------------------------------------------------------------------------------------

&OBST XB=34.06805,34.879235,20.441,21.25217,5.0,6.5, COLOR='GRAY 80', SURF_ID='INERT'/ Gas Manifold Header - WH-15
------------------------------------------------------------------------------------------
&OBST XB=34.168,34.79,20.54,21.15,5.0,6.4,SURF_IDs='BURNER1','BURNER1','BURNER1', DEVC_ID='1ST_WH_15', EVACUATION=.FALSE./ Burner
&DEVC ID='1ST_WH_15', XYZ=34.79,20.8,6.4, PROP_ID= 'HEAT'/
&PROP ID= 'HEAT', QUANTITY= 'LINK TEMPERATURE', RTI =2, ACTIVATION_TEMPERATURE= 28/
------------------------------------------------------------------------------------------
&OBST XB=34.06805,34.879235,18.98088,19.79205,5.0,6.5, COLOR='GRAY 80', SURF_ID='INERT'/ Gas Manifold Header - WH-16
&OBST XB=34.06805,34.879235,17.52076,18.33194,5.0,6.5, COLOR='GRAY 80', SURF_ID='INERT'/ Gas Manifold Header - WH-17
------------------------------------------------------------------------------------------
&OBST XB=34.168,34.79,17.62,18.23,5.0,6.4,SURF_IDs='BURNER1','BURNER1','BURNER1', DEVC_ID='1ST_WH_17', EVACUATION=.FALSE./ Burner
&DEVC ID='1ST_WH_17', XYZ=34.79,18.0,6.4, PROP_ID= 'HEAT'/
&PROP ID= 'HEAT', QUANTITY= 'LINK TEMPERATURE', RTI =2, ACTIVATION_TEMPERATURE= 28/
------------------------------------------------------------------------------------------
&OBST XB=34.06805,34.879235,16.060647,16.87182,5.0,6.5, COLOR='GRAY 80', SURF_ID='INERT'/ Gas Manifold Header - WH-18
------------------------------------------------------------------------------------------
&OBST XB=34.168,34.79,16.16,16.77,5.0,6.4,SURF_IDs='BURNER1','BURNER1','BURNER1', DEVC_ID='1ST_WH_18', EVACUATION=.FALSE./ Burner
&DEVC ID='1ST_WH_18', XYZ=34.79,16.5,6.4, PROP_ID= 'HEAT'/
&PROP ID= 'HEAT', QUANTITY= 'LINK TEMPERATURE', RTI =2, ACTIVATION_TEMPERATURE= 28/
------------------------------------------------------------------------------------------
&OBST XB=34.06805,34.879235,14.60052,15.4117,5.0,6.5, COLOR='GRAY 80', SURF_ID='INERT'/ Gas Manifold Header - WH-19
------------------------------------------------------------------------------------------
&OBST XB=34.168,34.79,14.7,15.51,5.0,6.4,SURF_IDs='BURNER1','BURNER1','BURNER1', DEVC_ID='1ST_WH_19', EVACUATION=.FALSE./ Burner
&DEVC ID='1ST_WH_19', XYZ=34.79,15.15,6.4, PROP_ID= 'HEAT'/
&PROP ID= 'HEAT', QUANTITY= 'LINK TEMPERATURE', RTI =2, ACTIVATION_TEMPERATURE= 28/
------------------------------------------------------------------------------------------
&OBST XB=34.06805,34.879235,13.140411,13.95158,5.0,6.5, COLOR='GRAY 80', SURF_ID='INERT'/ Gas Manifold Header - WH-20
&OBST XB=34.06805,34.879235,11.68029,12.491471,5.0,6.5, COLOR='GRAY 80', SURF_ID='INERT'/ Gas Manifold Header - WH-21

                          ===========		============		=============


				DECK #2 EQUIPMENTS (OBSTECLES)

&OBST XB=14.357,15.493,5.110,9.166,9.8,11.3, COLOR='GRAY 80', SURF_ID='INERT'/ 1WS-610 - Separator
------------------------------------------------------------------------------------------
&OBST XB=14.45,15.39,5.21,9.06,9.8,11.2,SURF_IDs='BURNER1','BURNER1','BURNER1', DEVC_ID='2ND_1WS_SEPT', EVACUATION=.FALSE./ Burner
&DEVC ID='2ND_1WS_SEPT', XYZ=15.39,7.0,11.2, PROP_ID= 'HEAT'/
&PROP ID= 'HEAT', QUANTITY= 'LINK TEMPERATURE', RTI =2, ACTIVATION_TEMPERATURE= 28/
------------------------------------------------------------------------------------------

&OBST XB=16.953,17.764,6.2459,7.0579,9.8,11.3, COLOR='GRAY 80', SURF_ID='INERT'/ Fuel Gas Scrubber
------------------------------------------------------------------------------------------
&OBST XB=17.08,17.67,6.345,6.91,9.8,11.2,SURF_IDs='BURNER1','BURNER1','BURNER1', DEVC_ID='2ND_FUEL_GAS_SCRUB', EVACUATION=.FALSE./ Burner
&DEVC ID='2ND_FUEL_GAS_SCRUB', XYZ=15.39,7.0,11.2, PROP_ID= 'HEAT'/
&PROP ID= 'HEAT', QUANTITY= 'LINK TEMPERATURE', RTI =2, ACTIVATION_TEMPERATURE= 28/
------------------------------------------------------------------------------------------

&OBST XB=17.602,19.143,3.1639,4.7059,9.8,11.3,COLOR='GRAY 80', SURF_ID='INERT'/ Crane Location to position the Hoisting system

&OBST XB=19.2245,19.4678,9.9783,12.2483,9.8,10.8,COLOR='GRAY 80', SURF_ID='INERT'/ Fuel Gas Pre-heater

&OBST XB=19.2245,19.4678,12.6399,15.1689,9.8,10.8,COLOR='GRAY 80', SURF_ID='INERT'/ Fuel Gas Super-heater

&OBST XB=17.358,17.602,7.8699,9.0049,9.8,10.8,COLOR='GRAY 80', SURF_ID='INERT'/ Fuel Gas Filters Scrubber
